Version 4
SHEET 1 1068 680
WIRE 800 -224 736 -224
WIRE 800 -192 800 -224
WIRE 544 -176 544 -192
WIRE 608 -176 544 -176
WIRE 672 -176 608 -176
WIRE 544 -160 544 -176
WIRE 608 -144 608 -176
WIRE 672 -144 672 -176
WIRE 800 -96 800 -112
WIRE 832 -96 800 -96
WIRE 144 -80 144 -112
WIRE 144 -80 -160 -80
WIRE 800 -80 800 -96
WIRE 144 -64 144 -80
WIRE 544 -48 544 -80
WIRE 608 -48 608 -80
WIRE 608 -48 544 -48
WIRE 672 -48 672 -80
WIRE 672 -48 608 -48
WIRE 736 -48 736 -224
WIRE 736 -48 672 -48
WIRE -160 -16 -160 -80
WIRE -160 -16 -352 -16
WIRE -16 -16 -160 -16
WIRE 336 -16 304 -16
WIRE 544 -16 544 -48
WIRE -352 16 -352 -16
WIRE 800 16 800 0
WIRE -160 80 -160 -16
WIRE -16 80 -160 80
WIRE 544 80 544 64
WIRE 544 80 304 80
WIRE 640 80 544 80
WIRE 768 80 704 80
WIRE 816 80 768 80
WIRE 880 80 816 80
WIRE 944 80 880 80
WIRE 976 80 944 80
WIRE 544 96 544 80
WIRE 816 144 816 80
WIRE 880 144 880 80
WIRE 944 144 944 80
WIRE -208 176 -288 176
WIRE -16 176 -208 176
WIRE 496 176 304 176
WIRE -288 224 -288 176
WIRE -208 272 -208 176
WIRE -16 272 -128 272
WIRE 352 272 304 272
WIRE 384 272 352 272
WIRE 768 272 768 80
WIRE 768 272 464 272
WIRE -128 320 -128 272
WIRE 352 320 352 272
WIRE -288 336 -288 304
WIRE -352 432 -352 80
WIRE -288 432 -288 400
WIRE -288 432 -352 432
WIRE -208 432 -208 336
WIRE -208 432 -288 432
WIRE -128 432 -128 400
WIRE -128 432 -208 432
WIRE 144 432 144 320
WIRE 144 432 -128 432
WIRE 352 432 352 400
WIRE 352 432 144 432
WIRE 544 432 544 192
WIRE 544 432 352 432
WIRE 816 432 816 208
WIRE 816 432 544 432
WIRE 880 432 880 208
WIRE 880 432 816 432
WIRE 944 432 944 224
WIRE 944 432 880 432
WIRE 144 448 144 432
FLAG 144 448 0
FLAG 544 -192 0
FLAG 976 80 VOUT
FLAG 144 -112 VOUT
FLAG 800 16 0
FLAG 336 -16 VRUN
FLAG 832 -96 VRUN
SYMBOL PowerProducts\\LTC1871 144 128 R0
SYMATTR InstName U1
SYMBOL cap -304 336 R0
SYMATTR InstName C1
SYMATTR Value 6.8n
SYMBOL res -304 208 R0
SYMATTR InstName R1
SYMATTR Value 22K
SYMBOL res -144 304 R0
SYMATTR InstName R2
SYMATTR Value 80.6K
SYMBOL cap -224 272 R0
SYMATTR InstName C2
SYMATTR Value 47p
SYMBOL cap -368 16 R0
SYMATTR InstName C3
SYMATTR Value 4.7
SYMBOL nmos 496 96 R0
SYMATTR InstName M1
SYMATTR Value FDS6630A
SYMBOL ind 528 -32 R0
SYMATTR InstName L1
SYMATTR Value 1
SYMBOL schottky 640 96 R270
WINDOW 0 32 32 VTop 2
WINDOW 3 0 32 VBottom 2
SYMATTR InstName D1
SYMATTR Value MBR20100CT
SYMATTR Description Diode
SYMATTR Type diode
SYMBOL res 480 256 R90
WINDOW 0 0 56 VBottom 2
WINDOW 3 32 56 VTop 2
SYMATTR InstName R3
SYMATTR Value 185K
SYMBOL polcap 800 144 R0
WINDOW 3 24 56 Left 2
SYMATTR InstName C4
SYMATTR Value 560
SYMATTR Description Capacitor
SYMATTR Type cap
SYMATTR SpiceLine V=6.3 Irms=595m Rser=0.12 Lser=0 mfg="Nichicon" pn="UPL0J561MPH" type="Al electrolytic"
SYMBOL cap 864 144 R0
SYMATTR InstName C5
SYMATTR Value 44
SYMBOL res 928 128 R0
SYMATTR InstName R4
SYMATTR Value 100
SYMBOL voltage 544 -64 R180
WINDOW 0 24 96 Left 2
WINDOW 3 24 16 Left 2
WINDOW 123 0 0 Left 2
WINDOW 39 0 0 Left 2
SYMATTR InstName V1
SYMATTR Value 12
SYMBOL polcap 624 -80 R180
WINDOW 0 24 57 Left 2
WINDOW 3 24 8 Left 2
SYMATTR InstName C6
SYMATTR Value 22
SYMATTR Description Capacitor
SYMATTR Type cap
SYMATTR SpiceLine V=6.3 Irms=0 Rser=2.5 Lser=0 mfg="AVX" pn="TAJB226M006" type="Tantalum"
SYMBOL polcap 688 -80 R180
WINDOW 0 24 57 Left 2
WINDOW 3 24 8 Left 2
SYMATTR InstName C7
SYMATTR Value 22
SYMATTR Description Capacitor
SYMATTR Type cap
SYMATTR SpiceLine V=6.3 Irms=0 Rser=2.5 Lser=0 mfg="AVX" pn="TAJB226M006" type="Tantalum"
SYMBOL res 336 304 R0
SYMATTR InstName R5
SYMATTR Value 12.1K
SYMBOL res 784 -208 R0
SYMATTR InstName R6
SYMATTR Value 600K
SYMBOL res 784 -96 R0
SYMATTR InstName R7
SYMATTR Value 320K
TEXT -370 472 Left 2 !.tran 0 0.1 0 0.01
